42
[8.4,7.27461339179,0.0][10.5,-3.63730669589,0.0]
C   -0.7   -3.63730669589   0.0   A
C   -1.4   -2.4248711306   0.0   B
C   -2.8   -2.4248711306   0.0   A
C   -3.5   -3.63730669589   0.0   B
C   -2.8   -4.84974226119   0.0   A
C   -1.4   -4.84974226119   0.0   B
C   3.5   -3.63730669589   0.0   A
C   2.8   -2.4248711306   0.0   B
C   1.4   -2.4248711306   0.0   A
C   0.7   -3.63730669589   0.0   B
C   1.4   -4.84974226119   0.0   A
C   2.8   -4.84974226119   0.0   B
C   -2.8   0.0   0.0   A
C   -3.5   1.2124355653   0.0   B
C   -4.9   1.2124355653   0.0   A
C   -5.6   0.0   0.0   B
C   -4.9   -1.2124355653   0.0   A
C   -3.5   -1.2124355653   0.0   B
C   1.4   0.0   0.0   A
C   0.7   1.2124355653   0.0   B
C   -0.7   1.2124355653   0.0   A
C   -1.4   0.0   0.0   B
C   -0.7   -1.2124355653   0.0   A
C   0.7   -1.2124355653   0.0   B
C   5.6   0.0   0.0   A
C   4.9   1.2124355653   0.0   B
C   3.5   1.2124355653   0.0   A
C   2.8   0.0   0.0   B
C   3.5   -1.2124355653   0.0   A
C   4.9   -1.2124355653   0.0   B
C   -0.7   3.63730669589   0.0   A
C   -1.4   4.84974226119   0.0   B
C   -2.8   4.84974226119   0.0   A
C   -3.5   3.63730669589   0.0   B
C   -2.8   2.4248711306   0.0   A
C   -1.4   2.4248711306   0.0   B
C   3.5   3.63730669589   0.0   A
C   2.8   4.84974226119   0.0   B
C   1.4   4.84974226119   0.0   A
C   0.7   3.63730669589   0.0   B
C   1.4   2.4248711306   0.0   A
C   2.8   2.4248711306   0.0   B
