1092
[33.6,21.8238401754,0.0][35.7,-18.1865334795,0.0]
C   -9.1   -18.1865334795   0.0   1
C   -9.8   -16.9740979142   0.0   -1
C   -11.2   -16.9740979142   0.0   1
C   -11.9   -18.1865334795   0.0   -1
C   -11.2   -19.3989690448   0.0   1
C   -9.8   -19.3989690448   0.0   -1
C   -4.9   -18.1865334795   0.0   1
C   -5.6   -16.9740979142   0.0   -1
C   -7.0   -16.9740979142   0.0   1
C   -7.7   -18.1865334795   0.0   -1
C   -7.0   -19.3989690448   0.0   1
C   -5.6   -19.3989690448   0.0   -1
C   -0.7   -18.1865334795   0.0   1
C   -1.4   -16.9740979142   0.0   -1
C   -2.8   -16.9740979142   0.0   1
C   -3.5   -18.1865334795   0.0   -1
C   -2.8   -19.3989690448   0.0   1
C   -1.4   -19.3989690448   0.0   -1
C   3.5   -18.1865334795   0.0   1
C   2.8   -16.9740979142   0.0   -1
C   1.4   -16.9740979142   0.0   1
C   0.7   -18.1865334795   0.0   -1
C   1.4   -19.3989690448   0.0   1
C   2.8   -19.3989690448   0.0   -1
C   7.7   -18.1865334795   0.0   1
C   7.0   -16.9740979142   0.0   -1
C   5.6   -16.9740979142   0.0   1
C   4.9   -18.1865334795   0.0   -1
C   5.6   -19.3989690448   0.0   1
C   7.0   -19.3989690448   0.0   -1
C   11.9   -18.1865334795   0.0   1
C   11.2   -16.9740979142   0.0   -1
C   9.8   -16.9740979142   0.0   1
C   9.1   -18.1865334795   0.0   -1
C   9.8   -19.3989690448   0.0   1
C   11.2   -19.3989690448   0.0   -1
C   -11.2   -14.5492267836   0.0   1
C   -11.9   -13.3367912183   0.0   -1
C   -13.3   -13.3367912183   0.0   1
C   -14.0   -14.5492267836   0.0   -1
C   -13.3   -15.7616623489   0.0   1
C   -11.9   -15.7616623489   0.0   -1
C   -7.0   -14.5492267836   0.0   1
C   -7.7   -13.3367912183   0.0   -1
C   -9.1   -13.3367912183   0.0   1
C   -9.8   -14.5492267836   0.0   -1
C   -9.1   -15.7616623489   0.0   1
C   -7.7   -15.7616623489   0.0   -1
C   -2.8   -14.5492267836   0.0   1
C   -3.5   -13.3367912183   0.0   -1
C   -4.9   -13.3367912183   0.0   1
C   -5.6   -14.5492267836   0.0   -1
C   -4.9   -15.7616623489   0.0   1
C   -3.5   -15.7616623489   0.0   -1
C   1.4   -14.5492267836   0.0   1
C   0.7   -13.3367912183   0.0   -1
C   -0.7   -13.3367912183   0.0   1
C   -1.4   -14.5492267836   0.0   -1
C   -0.7   -15.7616623489   0.0   1
C   0.7   -15.7616623489   0.0   -1
C   5.6   -14.5492267836   0.0   1
C   4.9   -13.3367912183   0.0   -1
C   3.5   -13.3367912183   0.0   1
C   2.8   -14.5492267836   0.0   -1
C   3.5   -15.7616623489   0.0   1
C   4.9   -15.7616623489   0.0   -1
C   9.8   -14.5492267836   0.0   1
C   9.1   -13.3367912183   0.0   -1
C   7.7   -13.3367912183   0.0   1
C   7.0   -14.5492267836   0.0   -1
C   7.7   -15.7616623489   0.0   1
C   9.1   -15.7616623489   0.0   -1
C   14.0   -14.5492267836   0.0   1
C   13.3   -13.3367912183   0.0   -1
C   11.9   -13.3367912183   0.0   1
C   11.2   -14.5492267836   0.0   -1
C   11.9   -15.7616623489   0.0   1
C   13.3   -15.7616623489   0.0   -1
C   -13.3   -10.9119200877   0.0   1
C   -14.0   -9.69948452239   0.0   -1
C   -15.4   -9.69948452239   0.0   1
C   -16.1   -10.9119200877   0.0   -1
C   -15.4   -12.124355653   0.0   1
C   -14.0   -12.124355653   0.0   -1
C   -9.1   -10.9119200877   0.0   1
C   -9.8   -9.69948452239   0.0   -1
C   -11.2   -9.69948452239   0.0   1
C   -11.9   -10.9119200877   0.0   -1
C   -11.2   -12.124355653   0.0   1
C   -9.8   -12.124355653   0.0   -1
C   -4.9   -10.9119200877   0.0   1
C   -5.6   -9.69948452239   0.0   -1
C   -7.0   -9.69948452239   0.0   1
C   -7.7   -10.9119200877   0.0   -1
C   -7.0   -12.124355653   0.0   1
C   -5.6   -12.124355653   0.0   -1
C   -0.7   -10.9119200877   0.0   1
C   -1.4   -9.69948452239   0.0   -1
C   -2.8   -9.69948452239   0.0   1
C   -3.5   -10.9119200877   0.0   -1
C   -2.8   -12.124355653   0.0   1
C   -1.4   -12.124355653   0.0   -1
C   3.5   -10.9119200877   0.0   1
C   2.8   -9.69948452239   0.0   -1
C   1.4   -9.69948452239   0.0   1
C   0.7   -10.9119200877   0.0   -1
C   1.4   -12.124355653   0.0   1
C   2.8   -12.124355653   0.0   -1
C   7.7   -10.9119200877   0.0   1
C   7.0   -9.69948452239   0.0   -1
C   5.6   -9.69948452239   0.0   1
C   4.9   -10.9119200877   0.0   -1
C   5.6   -12.124355653   0.0   1
C   7.0   -12.124355653   0.0   -1
C   11.9   -10.9119200877   0.0   1
C   11.2   -9.69948452239   0.0   -1
C   9.8   -9.69948452239   0.0   1
C   9.1   -10.9119200877   0.0   -1
C   9.8   -12.124355653   0.0   1
C   11.2   -12.124355653   0.0   -1
C   16.1   -10.9119200877   0.0   1
C   15.4   -9.69948452239   0.0   -1
C   14.0   -9.69948452239   0.0   1
C   13.3   -10.9119200877   0.0   -1
C   14.0   -12.124355653   0.0   1
C   15.4   -12.124355653   0.0   -1
C   -15.4   -7.27461339179   0.0   1
C   -16.1   -6.06217782649   0.0   -1
C   -17.5   -6.06217782649   0.0   1
C   -18.2   -7.27461339179   0.0   -1
C   -17.5   -8.48704895709   0.0   1
C   -16.1   -8.48704895709   0.0   -1
C   -11.2   -7.27461339179   0.0   1
C   -11.9   -6.06217782649   0.0   -1
C   -13.3   -6.06217782649   0.0   1
C   -14.0   -7.27461339179   0.0   -1
C   -13.3   -8.48704895709   0.0   1
C   -11.9   -8.48704895709   0.0   -1
C   -7.0   -7.27461339179   0.0   1
C   -7.7   -6.06217782649   0.0   -1
C   -9.1   -6.06217782649   0.0   1
C   -9.8   -7.27461339179   0.0   -1
C   -9.1   -8.48704895709   0.0   1
C   -7.7   -8.48704895709   0.0   -1
C   -2.8   -7.27461339179   0.0   1
C   -3.5   -6.06217782649   0.0   -1
C   -4.9   -6.06217782649   0.0   1
C   -5.6   -7.27461339179   0.0   -1
C   -4.9   -8.48704895709   0.0   1
C   -3.5   -8.48704895709   0.0   -1
C   1.4   -7.27461339179   0.0   1
C   0.7   -6.06217782649   0.0   -1
C   -0.7   -6.06217782649   0.0   1
C   -1.4   -7.27461339179   0.0   -1
C   -0.7   -8.48704895709   0.0   1
C   0.7   -8.48704895709   0.0   -1
C   5.6   -7.27461339179   0.0   1
C   4.9   -6.06217782649   0.0   -1
C   3.5   -6.06217782649   0.0   1
C   2.8   -7.27461339179   0.0   -1
C   3.5   -8.48704895709   0.0   1
C   4.9   -8.48704895709   0.0   -1
C   9.8   -7.27461339179   0.0   1
C   9.1   -6.06217782649   0.0   -1
C   7.7   -6.06217782649   0.0   1
C   7.0   -7.27461339179   0.0   -1
C   7.7   -8.48704895709   0.0   1
C   9.1   -8.48704895709   0.0   -1
C   14.0   -7.27461339179   0.0   1
C   13.3   -6.06217782649   0.0   -1
C   11.9   -6.06217782649   0.0   1
C   11.2   -7.27461339179   0.0   -1
C   11.9   -8.48704895709   0.0   1
C   13.3   -8.48704895709   0.0   -1
C   18.2   -7.27461339179   0.0   1
C   17.5   -6.06217782649   0.0   -1
C   16.1   -6.06217782649   0.0   1
C   15.4   -7.27461339179   0.0   -1
C   16.1   -8.48704895709   0.0   1
C   17.5   -8.48704895709   0.0   -1
C   -17.5   -3.63730669589   0.0   1
C   -18.2   -2.4248711306   0.0   -1
C   -19.6   -2.4248711306   0.0   1
C   -20.3   -3.63730669589   0.0   -1
C   -19.6   -4.84974226119   0.0   1
C   -18.2   -4.84974226119   0.0   -1
C   -13.3   -3.63730669589   0.0   1
C   -14.0   -2.4248711306   0.0   -1
C   -15.4   -2.4248711306   0.0   1
C   -16.1   -3.63730669589   0.0   -1
C   -15.4   -4.84974226119   0.0   1
C   -14.0   -4.84974226119   0.0   -1
C   -9.1   -3.63730669589   0.0   1
C   -9.8   -2.4248711306   0.0   -1
C   -11.2   -2.4248711306   0.0   1
C   -11.9   -3.63730669589   0.0   -1
C   -11.2   -4.84974226119   0.0   1
C   -9.8   -4.84974226119   0.0   -1
C   -4.9   -3.63730669589   0.0   1
C   -5.6   -2.4248711306   0.0   -1
C   -7.0   -2.4248711306   0.0   1
C   -7.7   -3.63730669589   0.0   -1
C   -7.0   -4.84974226119   0.0   1
C   -5.6   -4.84974226119   0.0   -1
C   -0.7   -3.63730669589   0.0   1
C   -1.4   -2.4248711306   0.0   -1
C   -2.8   -2.4248711306   0.0   1
C   -3.5   -3.63730669589   0.0   -1
C   -2.8   -4.84974226119   0.0   1
C   -1.4   -4.84974226119   0.0   -1
C   3.5   -3.63730669589   0.0   1
C   2.8   -2.4248711306   0.0   -1
C   1.4   -2.4248711306   0.0   1
C   0.7   -3.63730669589   0.0   -1
C   1.4   -4.84974226119   0.0   1
C   2.8   -4.84974226119   0.0   -1
C   7.7   -3.63730669589   0.0   1
C   7.0   -2.4248711306   0.0   -1
C   5.6   -2.4248711306   0.0   1
C   4.9   -3.63730669589   0.0   -1
C   5.6   -4.84974226119   0.0   1
C   7.0   -4.84974226119   0.0   -1
C   11.9   -3.63730669589   0.0   1
C   11.2   -2.4248711306   0.0   -1
C   9.8   -2.4248711306   0.0   1
C   9.1   -3.63730669589   0.0   -1
C   9.8   -4.84974226119   0.0   1
C   11.2   -4.84974226119   0.0   -1
C   16.1   -3.63730669589   0.0   1
C   15.4   -2.4248711306   0.0   -1
C   14.0   -2.4248711306   0.0   1
C   13.3   -3.63730669589   0.0   -1
C   14.0   -4.84974226119   0.0   1
C   15.4   -4.84974226119   0.0   -1
C   20.3   -3.63730669589   0.0   1
C   19.6   -2.4248711306   0.0   -1
C   18.2   -2.4248711306   0.0   1
C   17.5   -3.63730669589   0.0   -1
C   18.2   -4.84974226119   0.0   1
C   19.6   -4.84974226119   0.0   -1
C   -19.6   0.0   0.0   1
C   -20.3   1.2124355653   0.0   -1
C   -21.7   1.2124355653   0.0   1
C   -22.4   0.0   0.0   -1
C   -21.7   -1.2124355653   0.0   1
C   -20.3   -1.2124355653   0.0   -1
C   -15.4   0.0   0.0   1
C   -16.1   1.2124355653   0.0   -1
C   -17.5   1.2124355653   0.0   1
C   -18.2   0.0   0.0   -1
C   -17.5   -1.2124355653   0.0   1
C   -16.1   -1.2124355653   0.0   -1
C   -11.2   0.0   0.0   1
C   -11.9   1.2124355653   0.0   -1
C   -13.3   1.2124355653   0.0   1
C   -14.0   0.0   0.0   -1
C   -13.3   -1.2124355653   0.0   1
C   -11.9   -1.2124355653   0.0   -1
C   -7.0   0.0   0.0   1
C   -7.7   1.2124355653   0.0   -1
C   -9.1   1.2124355653   0.0   1
C   -9.8   0.0   0.0   -1
C   -9.1   -1.2124355653   0.0   1
C   -7.7   -1.2124355653   0.0   -1
C   -2.8   0.0   0.0   1
C   -3.5   1.2124355653   0.0   -1
C   -4.9   1.2124355653   0.0   1
C   -5.6   0.0   0.0   -1
C   -4.9   -1.2124355653   0.0   1
C   -3.5   -1.2124355653   0.0   -1
C   1.4   0.0   0.0   1
C   0.7   1.2124355653   0.0   -1
C   -0.7   1.2124355653   0.0   1
C   -1.4   0.0   0.0   -1
C   -0.7   -1.2124355653   0.0   1
C   0.7   -1.2124355653   0.0   -1
C   5.6   0.0   0.0   1
C   4.9   1.2124355653   0.0   -1
C   3.5   1.2124355653   0.0   1
C   2.8   0.0   0.0   -1
C   3.5   -1.2124355653   0.0   1
C   4.9   -1.2124355653   0.0   -1
C   9.8   0.0   0.0   1
C   9.1   1.2124355653   0.0   -1
C   7.7   1.2124355653   0.0   1
C   7.0   0.0   0.0   -1
C   7.7   -1.2124355653   0.0   1
C   9.1   -1.2124355653   0.0   -1
C   14.0   0.0   0.0   1
C   13.3   1.2124355653   0.0   -1
C   11.9   1.2124355653   0.0   1
C   11.2   0.0   0.0   -1
C   11.9   -1.2124355653   0.0   1
C   13.3   -1.2124355653   0.0   -1
C   18.2   0.0   0.0   1
C   17.5   1.2124355653   0.0   -1
C   16.1   1.2124355653   0.0   1
C   15.4   0.0   0.0   -1
C   16.1   -1.2124355653   0.0   1
C   17.5   -1.2124355653   0.0   -1
C   22.4   0.0   0.0   1
C   21.7   1.2124355653   0.0   -1
C   20.3   1.2124355653   0.0   1
C   19.6   0.0   0.0   -1
C   20.3   -1.2124355653   0.0   1
C   21.7   -1.2124355653   0.0   -1
C   -17.5   3.63730669589   0.0   1
C   -18.2   4.84974226119   0.0   -1
C   -19.6   4.84974226119   0.0   1
C   -20.3   3.63730669589   0.0   -1
C   -19.6   2.4248711306   0.0   1
C   -18.2   2.4248711306   0.0   -1
C   -13.3   3.63730669589   0.0   1
C   -14.0   4.84974226119   0.0   -1
C   -15.4   4.84974226119   0.0   1
C   -16.1   3.63730669589   0.0   -1
C   -15.4   2.4248711306   0.0   1
C   -14.0   2.4248711306   0.0   -1
C   -9.1   3.63730669589   0.0   1
C   -9.8   4.84974226119   0.0   -1
C   -11.2   4.84974226119   0.0   1
C   -11.9   3.63730669589   0.0   -1
C   -11.2   2.4248711306   0.0   1
C   -9.8   2.4248711306   0.0   -1
C   -4.9   3.63730669589   0.0   1
C   -5.6   4.84974226119   0.0   -1
C   -7.0   4.84974226119   0.0   1
C   -7.7   3.63730669589   0.0   -1
C   -7.0   2.4248711306   0.0   1
C   -5.6   2.4248711306   0.0   -1
C   -0.7   3.63730669589   0.0   1
C   -1.4   4.84974226119   0.0   -1
C   -2.8   4.84974226119   0.0   1
C   -3.5   3.63730669589   0.0   -1
C   -2.8   2.4248711306   0.0   1
C   -1.4   2.4248711306   0.0   -1
C   3.5   3.63730669589   0.0   1
C   2.8   4.84974226119   0.0   -1
C   1.4   4.84974226119   0.0   1
C   0.7   3.63730669589   0.0   -1
C   1.4   2.4248711306   0.0   1
C   2.8   2.4248711306   0.0   -1
C   7.7   3.63730669589   0.0   1
C   7.0   4.84974226119   0.0   -1
C   5.6   4.84974226119   0.0   1
C   4.9   3.63730669589   0.0   -1
C   5.6   2.4248711306   0.0   1
C   7.0   2.4248711306   0.0   -1
C   11.9   3.63730669589   0.0   1
C   11.2   4.84974226119   0.0   -1
C   9.8   4.84974226119   0.0   1
C   9.1   3.63730669589   0.0   -1
C   9.8   2.4248711306   0.0   1
C   11.2   2.4248711306   0.0   -1
C   16.1   3.63730669589   0.0   1
C   15.4   4.84974226119   0.0   -1
C   14.0   4.84974226119   0.0   1
C   13.3   3.63730669589   0.0   -1
C   14.0   2.4248711306   0.0   1
C   15.4   2.4248711306   0.0   -1
C   20.3   3.63730669589   0.0   1
C   19.6   4.84974226119   0.0   -1
C   18.2   4.84974226119   0.0   1
C   17.5   3.63730669589   0.0   -1
C   18.2   2.4248711306   0.0   1
C   19.6   2.4248711306   0.0   -1
C   -15.4   7.27461339179   0.0   1
C   -16.1   8.48704895709   0.0   -1
C   -17.5   8.48704895709   0.0   1
C   -18.2   7.27461339179   0.0   -1
C   -17.5   6.06217782649   0.0   1
C   -16.1   6.06217782649   0.0   -1
C   -11.2   7.27461339179   0.0   1
C   -11.9   8.48704895709   0.0   -1
C   -13.3   8.48704895709   0.0   1
C   -14.0   7.27461339179   0.0   -1
C   -13.3   6.06217782649   0.0   1
C   -11.9   6.06217782649   0.0   -1
C   -7.0   7.27461339179   0.0   1
C   -7.7   8.48704895709   0.0   -1
C   -9.1   8.48704895709   0.0   1
C   -9.8   7.27461339179   0.0   -1
C   -9.1   6.06217782649   0.0   1
C   -7.7   6.06217782649   0.0   -1
C   -2.8   7.27461339179   0.0   1
C   -3.5   8.48704895709   0.0   -1
C   -4.9   8.48704895709   0.0   1
C   -5.6   7.27461339179   0.0   -1
C   -4.9   6.06217782649   0.0   1
C   -3.5   6.06217782649   0.0   -1
C   1.4   7.27461339179   0.0   1
C   0.7   8.48704895709   0.0   -1
C   -0.7   8.48704895709   0.0   1
C   -1.4   7.27461339179   0.0   -1
C   -0.7   6.06217782649   0.0   1
C   0.7   6.06217782649   0.0   -1
C   5.6   7.27461339179   0.0   1
C   4.9   8.48704895709   0.0   -1
C   3.5   8.48704895709   0.0   1
C   2.8   7.27461339179   0.0   -1
C   3.5   6.06217782649   0.0   1
C   4.9   6.06217782649   0.0   -1
C   9.8   7.27461339179   0.0   1
C   9.1   8.48704895709   0.0   -1
C   7.7   8.48704895709   0.0   1
C   7.0   7.27461339179   0.0   -1
C   7.7   6.06217782649   0.0   1
C   9.1   6.06217782649   0.0   -1
C   14.0   7.27461339179   0.0   1
C   13.3   8.48704895709   0.0   -1
C   11.9   8.48704895709   0.0   1
C   11.2   7.27461339179   0.0   -1
C   11.9   6.06217782649   0.0   1
C   13.3   6.06217782649   0.0   -1
C   18.2   7.27461339179   0.0   1
C   17.5   8.48704895709   0.0   -1
C   16.1   8.48704895709   0.0   1
C   15.4   7.27461339179   0.0   -1
C   16.1   6.06217782649   0.0   1
C   17.5   6.06217782649   0.0   -1
C   -13.3   10.9119200877   0.0   1
C   -14.0   12.124355653   0.0   -1
C   -15.4   12.124355653   0.0   1
C   -16.1   10.9119200877   0.0   -1
C   -15.4   9.69948452239   0.0   1
C   -14.0   9.69948452239   0.0   -1
C   -9.1   10.9119200877   0.0   1
C   -9.8   12.124355653   0.0   -1
C   -11.2   12.124355653   0.0   1
C   -11.9   10.9119200877   0.0   -1
C   -11.2   9.69948452239   0.0   1
C   -9.8   9.69948452239   0.0   -1
C   -4.9   10.9119200877   0.0   1
C   -5.6   12.124355653   0.0   -1
C   -7.0   12.124355653   0.0   1
C   -7.7   10.9119200877   0.0   -1
C   -7.0   9.69948452239   0.0   1
C   -5.6   9.69948452239   0.0   -1
C   -0.7   10.9119200877   0.0   1
C   -1.4   12.124355653   0.0   -1
C   -2.8   12.124355653   0.0   1
C   -3.5   10.9119200877   0.0   -1
C   -2.8   9.69948452239   0.0   1
C   -1.4   9.69948452239   0.0   -1
C   3.5   10.9119200877   0.0   1
C   2.8   12.124355653   0.0   -1
C   1.4   12.124355653   0.0   1
C   0.7   10.9119200877   0.0   -1
C   1.4   9.69948452239   0.0   1
C   2.8   9.69948452239   0.0   -1
C   7.7   10.9119200877   0.0   1
C   7.0   12.124355653   0.0   -1
C   5.6   12.124355653   0.0   1
C   4.9   10.9119200877   0.0   -1
C   5.6   9.69948452239   0.0   1
C   7.0   9.69948452239   0.0   -1
C   11.9   10.9119200877   0.0   1
C   11.2   12.124355653   0.0   -1
C   9.8   12.124355653   0.0   1
C   9.1   10.9119200877   0.0   -1
C   9.8   9.69948452239   0.0   1
C   11.2   9.69948452239   0.0   -1
C   16.1   10.9119200877   0.0   1
C   15.4   12.124355653   0.0   -1
C   14.0   12.124355653   0.0   1
C   13.3   10.9119200877   0.0   -1
C   14.0   9.69948452239   0.0   1
C   15.4   9.69948452239   0.0   -1
C   -11.2   14.5492267836   0.0   1
C   -11.9   15.7616623489   0.0   -1
C   -13.3   15.7616623489   0.0   1
C   -14.0   14.5492267836   0.0   -1
C   -13.3   13.3367912183   0.0   1
C   -11.9   13.3367912183   0.0   -1
C   -7.0   14.5492267836   0.0   1
C   -7.7   15.7616623489   0.0   -1
C   -9.1   15.7616623489   0.0   1
C   -9.8   14.5492267836   0.0   -1
C   -9.1   13.3367912183   0.0   1
C   -7.7   13.3367912183   0.0   -1
C   -2.8   14.5492267836   0.0   1
C   -3.5   15.7616623489   0.0   -1
C   -4.9   15.7616623489   0.0   1
C   -5.6   14.5492267836   0.0   -1
C   -4.9   13.3367912183   0.0   1
C   -3.5   13.3367912183   0.0   -1
C   1.4   14.5492267836   0.0   1
C   0.7   15.7616623489   0.0   -1
C   -0.7   15.7616623489   0.0   1
C   -1.4   14.5492267836   0.0   -1
C   -0.7   13.3367912183   0.0   1
C   0.7   13.3367912183   0.0   -1
C   5.6   14.5492267836   0.0   1
C   4.9   15.7616623489   0.0   -1
C   3.5   15.7616623489   0.0   1
C   2.8   14.5492267836   0.0   -1
C   3.5   13.3367912183   0.0   1
C   4.9   13.3367912183   0.0   -1
C   9.8   14.5492267836   0.0   1
C   9.1   15.7616623489   0.0   -1
C   7.7   15.7616623489   0.0   1
C   7.0   14.5492267836   0.0   -1
C   7.7   13.3367912183   0.0   1
C   9.1   13.3367912183   0.0   -1
C   14.0   14.5492267836   0.0   1
C   13.3   15.7616623489   0.0   -1
C   11.9   15.7616623489   0.0   1
C   11.2   14.5492267836   0.0   -1
C   11.9   13.3367912183   0.0   1
C   13.3   13.3367912183   0.0   -1
C   -9.1   18.1865334795   0.0   1
C   -9.8   19.3989690448   0.0   -1
C   -11.2   19.3989690448   0.0   1
C   -11.9   18.1865334795   0.0   -1
C   -11.2   16.9740979142   0.0   1
C   -9.8   16.9740979142   0.0   -1
C   -4.9   18.1865334795   0.0   1
C   -5.6   19.3989690448   0.0   -1
C   -7.0   19.3989690448   0.0   1
C   -7.7   18.1865334795   0.0   -1
C   -7.0   16.9740979142   0.0   1
C   -5.6   16.9740979142   0.0   -1
C   -0.7   18.1865334795   0.0   1
C   -1.4   19.3989690448   0.0   -1
C   -2.8   19.3989690448   0.0   1
C   -3.5   18.1865334795   0.0   -1
C   -2.8   16.9740979142   0.0   1
C   -1.4   16.9740979142   0.0   -1
C   3.5   18.1865334795   0.0   1
C   2.8   19.3989690448   0.0   -1
C   1.4   19.3989690448   0.0   1
C   0.7   18.1865334795   0.0   -1
C   1.4   16.9740979142   0.0   1
C   2.8   16.9740979142   0.0   -1
C   7.7   18.1865334795   0.0   1
C   7.0   19.3989690448   0.0   -1
C   5.6   19.3989690448   0.0   1
C   4.9   18.1865334795   0.0   -1
C   5.6   16.9740979142   0.0   1
C   7.0   16.9740979142   0.0   -1
C   11.9   18.1865334795   0.0   1
C   11.2   19.3989690448   0.0   -1
C   9.8   19.3989690448   0.0   1
C   9.1   18.1865334795   0.0   -1
C   9.8   16.9740979142   0.0   1
C   11.2   16.9740979142   0.0   -1
C   -7.7   -18.1865334795   1.4   1
C   -8.4   -16.9740979142   1.4   -1
C   -9.8   -16.9740979142   1.4   1
C   -10.5   -18.1865334795   1.4   -1
C   -9.8   -19.3989690448   1.4   1
C   -8.4   -19.3989690448   1.4   -1
C   -3.5   -18.1865334795   1.4   1
C   -4.2   -16.9740979142   1.4   -1
C   -5.6   -16.9740979142   1.4   1
C   -6.3   -18.1865334795   1.4   -1
C   -5.6   -19.3989690448   1.4   1
C   -4.2   -19.3989690448   1.4   -1
C   0.7   -18.1865334795   1.4   1
C   2.22044604925e-16   -16.9740979142   1.4   -1
C   -1.4   -16.9740979142   1.4   1
C   -2.1   -18.1865334795   1.4   -1
C   -1.4   -19.3989690448   1.4   1
C   2.22044604925e-16   -19.3989690448   1.4   -1
C   4.9   -18.1865334795   1.4   1
C   4.2   -16.9740979142   1.4   -1
C   2.8   -16.9740979142   1.4   1
C   2.1   -18.1865334795   1.4   -1
C   2.8   -19.3989690448   1.4   1
C   4.2   -19.3989690448   1.4   -1
C   9.1   -18.1865334795   1.4   1
C   8.4   -16.9740979142   1.4   -1
C   7.0   -16.9740979142   1.4   1
C   6.3   -18.1865334795   1.4   -1
C   7.0   -19.3989690448   1.4   1
C   8.4   -19.3989690448   1.4   -1
C   13.3   -18.1865334795   1.4   1
C   12.6   -16.9740979142   1.4   -1
C   11.2   -16.9740979142   1.4   1
C   10.5   -18.1865334795   1.4   -1
C   11.2   -19.3989690448   1.4   1
C   12.6   -19.3989690448   1.4   -1
C   -9.8   -14.5492267836   1.4   1
C   -10.5   -13.3367912183   1.4   -1
C   -11.9   -13.3367912183   1.4   1
C   -12.6   -14.5492267836   1.4   -1
C   -11.9   -15.7616623489   1.4   1
C   -10.5   -15.7616623489   1.4   -1
C   -5.6   -14.5492267836   1.4   1
C   -6.3   -13.3367912183   1.4   -1
C   -7.7   -13.3367912183   1.4   1
C   -8.4   -14.5492267836   1.4   -1
C   -7.7   -15.7616623489   1.4   1
C   -6.3   -15.7616623489   1.4   -1
C   -1.4   -14.5492267836   1.4   1
C   -2.1   -13.3367912183   1.4   -1
C   -3.5   -13.3367912183   1.4   1
C   -4.2   -14.5492267836   1.4   -1
C   -3.5   -15.7616623489   1.4   1
C   -2.1   -15.7616623489   1.4   -1
C   2.8   -14.5492267836   1.4   1
C   2.1   -13.3367912183   1.4   -1
C   0.7   -13.3367912183   1.4   1
C   0.0   -14.5492267836   1.4   -1
C   0.7   -15.7616623489   1.4   1
C   2.1   -15.7616623489   1.4   -1
C   7.0   -14.5492267836   1.4   1
C   6.3   -13.3367912183   1.4   -1
C   4.9   -13.3367912183   1.4   1
C   4.2   -14.5492267836   1.4   -1
C   4.9   -15.7616623489   1.4   1
C   6.3   -15.7616623489   1.4   -1
C   11.2   -14.5492267836   1.4   1
C   10.5   -13.3367912183   1.4   -1
C   9.1   -13.3367912183   1.4   1
C   8.4   -14.5492267836   1.4   -1
C   9.1   -15.7616623489   1.4   1
C   10.5   -15.7616623489   1.4   -1
C   15.4   -14.5492267836   1.4   1
C   14.7   -13.3367912183   1.4   -1
C   13.3   -13.3367912183   1.4   1
C   12.6   -14.5492267836   1.4   -1
C   13.3   -15.7616623489   1.4   1
C   14.7   -15.7616623489   1.4   -1
C   -11.9   -10.9119200877   1.4   1
C   -12.6   -9.69948452239   1.4   -1
C   -14.0   -9.69948452239   1.4   1
C   -14.7   -10.9119200877   1.4   -1
C   -14.0   -12.124355653   1.4   1
C   -12.6   -12.124355653   1.4   -1
C   -7.7   -10.9119200877   1.4   1
C   -8.4   -9.69948452239   1.4   -1
C   -9.8   -9.69948452239   1.4   1
C   -10.5   -10.9119200877   1.4   -1
C   -9.8   -12.124355653   1.4   1
C   -8.4   -12.124355653   1.4   -1
C   -3.5   -10.9119200877   1.4   1
C   -4.2   -9.69948452239   1.4   -1
C   -5.6   -9.69948452239   1.4   1
C   -6.3   -10.9119200877   1.4   -1
C   -5.6   -12.124355653   1.4   1
C   -4.2   -12.124355653   1.4   -1
C   0.7   -10.9119200877   1.4   1
C   2.22044604925e-16   -9.69948452239   1.4   -1
C   -1.4   -9.69948452239   1.4   1
C   -2.1   -10.9119200877   1.4   -1
C   -1.4   -12.124355653   1.4   1
C   2.22044604925e-16   -12.124355653   1.4   -1
C   4.9   -10.9119200877   1.4   1
C   4.2   -9.69948452239   1.4   -1
C   2.8   -9.69948452239   1.4   1
C   2.1   -10.9119200877   1.4   -1
C   2.8   -12.124355653   1.4   1
C   4.2   -12.124355653   1.4   -1
C   9.1   -10.9119200877   1.4   1
C   8.4   -9.69948452239   1.4   -1
C   7.0   -9.69948452239   1.4   1
C   6.3   -10.9119200877   1.4   -1
C   7.0   -12.124355653   1.4   1
C   8.4   -12.124355653   1.4   -1
C   13.3   -10.9119200877   1.4   1
C   12.6   -9.69948452239   1.4   -1
C   11.2   -9.69948452239   1.4   1
C   10.5   -10.9119200877   1.4   -1
C   11.2   -12.124355653   1.4   1
C   12.6   -12.124355653   1.4   -1
C   17.5   -10.9119200877   1.4   1
C   16.8   -9.69948452239   1.4   -1
C   15.4   -9.69948452239   1.4   1
C   14.7   -10.9119200877   1.4   -1
C   15.4   -12.124355653   1.4   1
C   16.8   -12.124355653   1.4   -1
C   -14.0   -7.27461339179   1.4   1
C   -14.7   -6.06217782649   1.4   -1
C   -16.1   -6.06217782649   1.4   1
C   -16.8   -7.27461339179   1.4   -1
C   -16.1   -8.48704895709   1.4   1
C   -14.7   -8.48704895709   1.4   -1
C   -9.8   -7.27461339179   1.4   1
C   -10.5   -6.06217782649   1.4   -1
C   -11.9   -6.06217782649   1.4   1
C   -12.6   -7.27461339179   1.4   -1
C   -11.9   -8.48704895709   1.4   1
C   -10.5   -8.48704895709   1.4   -1
C   -5.6   -7.27461339179   1.4   1
C   -6.3   -6.06217782649   1.4   -1
C   -7.7   -6.06217782649   1.4   1
C   -8.4   -7.27461339179   1.4   -1
C   -7.7   -8.48704895709   1.4   1
C   -6.3   -8.48704895709   1.4   -1
C   -1.4   -7.27461339179   1.4   1
C   -2.1   -6.06217782649   1.4   -1
C   -3.5   -6.06217782649   1.4   1
C   -4.2   -7.27461339179   1.4   -1
C   -3.5   -8.48704895709   1.4   1
C   -2.1   -8.48704895709   1.4   -1
C   2.8   -7.27461339179   1.4   1
C   2.1   -6.06217782649   1.4   -1
C   0.7   -6.06217782649   1.4   1
C   0.0   -7.27461339179   1.4   -1
C   0.7   -8.48704895709   1.4   1
C   2.1   -8.48704895709   1.4   -1
C   7.0   -7.27461339179   1.4   1
C   6.3   -6.06217782649   1.4   -1
C   4.9   -6.06217782649   1.4   1
C   4.2   -7.27461339179   1.4   -1
C   4.9   -8.48704895709   1.4   1
C   6.3   -8.48704895709   1.4   -1
C   11.2   -7.27461339179   1.4   1
C   10.5   -6.06217782649   1.4   -1
C   9.1   -6.06217782649   1.4   1
C   8.4   -7.27461339179   1.4   -1
C   9.1   -8.48704895709   1.4   1
C   10.5   -8.48704895709   1.4   -1
C   15.4   -7.27461339179   1.4   1
C   14.7   -6.06217782649   1.4   -1
C   13.3   -6.06217782649   1.4   1
C   12.6   -7.27461339179   1.4   -1
C   13.3   -8.48704895709   1.4   1
C   14.7   -8.48704895709   1.4   -1
C   19.6   -7.27461339179   1.4   1
C   18.9   -6.06217782649   1.4   -1
C   17.5   -6.06217782649   1.4   1
C   16.8   -7.27461339179   1.4   -1
C   17.5   -8.48704895709   1.4   1
C   18.9   -8.48704895709   1.4   -1
C   -16.1   -3.63730669589   1.4   1
C   -16.8   -2.4248711306   1.4   -1
C   -18.2   -2.4248711306   1.4   1
C   -18.9   -3.63730669589   1.4   -1
C   -18.2   -4.84974226119   1.4   1
C   -16.8   -4.84974226119   1.4   -1
C   -11.9   -3.63730669589   1.4   1
C   -12.6   -2.4248711306   1.4   -1
C   -14.0   -2.4248711306   1.4   1
C   -14.7   -3.63730669589   1.4   -1
C   -14.0   -4.84974226119   1.4   1
C   -12.6   -4.84974226119   1.4   -1
C   -7.7   -3.63730669589   1.4   1
C   -8.4   -2.4248711306   1.4   -1
C   -9.8   -2.4248711306   1.4   1
C   -10.5   -3.63730669589   1.4   -1
C   -9.8   -4.84974226119   1.4   1
C   -8.4   -4.84974226119   1.4   -1
C   -3.5   -3.63730669589   1.4   1
C   -4.2   -2.4248711306   1.4   -1
C   -5.6   -2.4248711306   1.4   1
C   -6.3   -3.63730669589   1.4   -1
C   -5.6   -4.84974226119   1.4   1
C   -4.2   -4.84974226119   1.4   -1
C   0.7   -3.63730669589   1.4   1
C   2.22044604925e-16   -2.4248711306   1.4   -1
C   -1.4   -2.4248711306   1.4   1
C   -2.1   -3.63730669589   1.4   -1
C   -1.4   -4.84974226119   1.4   1
C   2.22044604925e-16   -4.84974226119   1.4   -1
C   4.9   -3.63730669589   1.4   1
C   4.2   -2.4248711306   1.4   -1
C   2.8   -2.4248711306   1.4   1
C   2.1   -3.63730669589   1.4   -1
C   2.8   -4.84974226119   1.4   1
C   4.2   -4.84974226119   1.4   -1
C   9.1   -3.63730669589   1.4   1
C   8.4   -2.4248711306   1.4   -1
C   7.0   -2.4248711306   1.4   1
C   6.3   -3.63730669589   1.4   -1
C   7.0   -4.84974226119   1.4   1
C   8.4   -4.84974226119   1.4   -1
C   13.3   -3.63730669589   1.4   1
C   12.6   -2.4248711306   1.4   -1
C   11.2   -2.4248711306   1.4   1
C   10.5   -3.63730669589   1.4   -1
C   11.2   -4.84974226119   1.4   1
C   12.6   -4.84974226119   1.4   -1
C   17.5   -3.63730669589   1.4   1
C   16.8   -2.4248711306   1.4   -1
C   15.4   -2.4248711306   1.4   1
C   14.7   -3.63730669589   1.4   -1
C   15.4   -4.84974226119   1.4   1
C   16.8   -4.84974226119   1.4   -1
C   21.7   -3.63730669589   1.4   1
C   21.0   -2.4248711306   1.4   -1
C   19.6   -2.4248711306   1.4   1
C   18.9   -3.63730669589   1.4   -1
C   19.6   -4.84974226119   1.4   1
C   21.0   -4.84974226119   1.4   -1
C   -18.2   0.0   1.4   1
C   -18.9   1.2124355653   1.4   -1
C   -20.3   1.2124355653   1.4   1
C   -21.0   0.0   1.4   -1
C   -20.3   -1.2124355653   1.4   1
C   -18.9   -1.2124355653   1.4   -1
C   -14.0   0.0   1.4   1
C   -14.7   1.2124355653   1.4   -1
C   -16.1   1.2124355653   1.4   1
C   -16.8   0.0   1.4   -1
C   -16.1   -1.2124355653   1.4   1
C   -14.7   -1.2124355653   1.4   -1
C   -9.8   0.0   1.4   1
C   -10.5   1.2124355653   1.4   -1
C   -11.9   1.2124355653   1.4   1
C   -12.6   0.0   1.4   -1
C   -11.9   -1.2124355653   1.4   1
C   -10.5   -1.2124355653   1.4   -1
C   -5.6   0.0   1.4   1
C   -6.3   1.2124355653   1.4   -1
C   -7.7   1.2124355653   1.4   1
C   -8.4   0.0   1.4   -1
C   -7.7   -1.2124355653   1.4   1
C   -6.3   -1.2124355653   1.4   -1
C   -1.4   0.0   1.4   1
C   -2.1   1.2124355653   1.4   -1
C   -3.5   1.2124355653   1.4   1
C   -4.2   0.0   1.4   -1
C   -3.5   -1.2124355653   1.4   1
C   -2.1   -1.2124355653   1.4   -1
C   2.8   0.0   1.4   1
C   2.1   1.2124355653   1.4   -1
C   0.7   1.2124355653   1.4   1
C   0.0   0.0   1.4   -1
C   0.7   -1.2124355653   1.4   1
C   2.1   -1.2124355653   1.4   -1
C   7.0   0.0   1.4   1
C   6.3   1.2124355653   1.4   -1
C   4.9   1.2124355653   1.4   1
C   4.2   0.0   1.4   -1
C   4.9   -1.2124355653   1.4   1
C   6.3   -1.2124355653   1.4   -1
C   11.2   0.0   1.4   1
C   10.5   1.2124355653   1.4   -1
C   9.1   1.2124355653   1.4   1
C   8.4   0.0   1.4   -1
C   9.1   -1.2124355653   1.4   1
C   10.5   -1.2124355653   1.4   -1
C   15.4   0.0   1.4   1
C   14.7   1.2124355653   1.4   -1
C   13.3   1.2124355653   1.4   1
C   12.6   0.0   1.4   -1
C   13.3   -1.2124355653   1.4   1
C   14.7   -1.2124355653   1.4   -1
C   19.6   0.0   1.4   1
C   18.9   1.2124355653   1.4   -1
C   17.5   1.2124355653   1.4   1
C   16.8   0.0   1.4   -1
C   17.5   -1.2124355653   1.4   1
C   18.9   -1.2124355653   1.4   -1
C   23.8   0.0   1.4   1
C   23.1   1.2124355653   1.4   -1
C   21.7   1.2124355653   1.4   1
C   21.0   0.0   1.4   -1
C   21.7   -1.2124355653   1.4   1
C   23.1   -1.2124355653   1.4   -1
C   -16.1   3.63730669589   1.4   1
C   -16.8   4.84974226119   1.4   -1
C   -18.2   4.84974226119   1.4   1
C   -18.9   3.63730669589   1.4   -1
C   -18.2   2.4248711306   1.4   1
C   -16.8   2.4248711306   1.4   -1
C   -11.9   3.63730669589   1.4   1
C   -12.6   4.84974226119   1.4   -1
C   -14.0   4.84974226119   1.4   1
C   -14.7   3.63730669589   1.4   -1
C   -14.0   2.4248711306   1.4   1
C   -12.6   2.4248711306   1.4   -1
C   -7.7   3.63730669589   1.4   1
C   -8.4   4.84974226119   1.4   -1
C   -9.8   4.84974226119   1.4   1
C   -10.5   3.63730669589   1.4   -1
C   -9.8   2.4248711306   1.4   1
C   -8.4   2.4248711306   1.4   -1
C   -3.5   3.63730669589   1.4   1
C   -4.2   4.84974226119   1.4   -1
C   -5.6   4.84974226119   1.4   1
C   -6.3   3.63730669589   1.4   -1
C   -5.6   2.4248711306   1.4   1
C   -4.2   2.4248711306   1.4   -1
C   0.7   3.63730669589   1.4   1
C   2.22044604925e-16   4.84974226119   1.4   -1
C   -1.4   4.84974226119   1.4   1
C   -2.1   3.63730669589   1.4   -1
C   -1.4   2.4248711306   1.4   1
C   2.22044604925e-16   2.4248711306   1.4   -1
C   4.9   3.63730669589   1.4   1
C   4.2   4.84974226119   1.4   -1
C   2.8   4.84974226119   1.4   1
C   2.1   3.63730669589   1.4   -1
C   2.8   2.4248711306   1.4   1
C   4.2   2.4248711306   1.4   -1
C   9.1   3.63730669589   1.4   1
C   8.4   4.84974226119   1.4   -1
C   7.0   4.84974226119   1.4   1
C   6.3   3.63730669589   1.4   -1
C   7.0   2.4248711306   1.4   1
C   8.4   2.4248711306   1.4   -1
C   13.3   3.63730669589   1.4   1
C   12.6   4.84974226119   1.4   -1
C   11.2   4.84974226119   1.4   1
C   10.5   3.63730669589   1.4   -1
C   11.2   2.4248711306   1.4   1
C   12.6   2.4248711306   1.4   -1
C   17.5   3.63730669589   1.4   1
C   16.8   4.84974226119   1.4   -1
C   15.4   4.84974226119   1.4   1
C   14.7   3.63730669589   1.4   -1
C   15.4   2.4248711306   1.4   1
C   16.8   2.4248711306   1.4   -1
C   21.7   3.63730669589   1.4   1
C   21.0   4.84974226119   1.4   -1
C   19.6   4.84974226119   1.4   1
C   18.9   3.63730669589   1.4   -1
C   19.6   2.4248711306   1.4   1
C   21.0   2.4248711306   1.4   -1
C   -14.0   7.27461339179   1.4   1
C   -14.7   8.48704895709   1.4   -1
C   -16.1   8.48704895709   1.4   1
C   -16.8   7.27461339179   1.4   -1
C   -16.1   6.06217782649   1.4   1
C   -14.7   6.06217782649   1.4   -1
C   -9.8   7.27461339179   1.4   1
C   -10.5   8.48704895709   1.4   -1
C   -11.9   8.48704895709   1.4   1
C   -12.6   7.27461339179   1.4   -1
C   -11.9   6.06217782649   1.4   1
C   -10.5   6.06217782649   1.4   -1
C   -5.6   7.27461339179   1.4   1
C   -6.3   8.48704895709   1.4   -1
C   -7.7   8.48704895709   1.4   1
C   -8.4   7.27461339179   1.4   -1
C   -7.7   6.06217782649   1.4   1
C   -6.3   6.06217782649   1.4   -1
C   -1.4   7.27461339179   1.4   1
C   -2.1   8.48704895709   1.4   -1
C   -3.5   8.48704895709   1.4   1
C   -4.2   7.27461339179   1.4   -1
C   -3.5   6.06217782649   1.4   1
C   -2.1   6.06217782649   1.4   -1
C   2.8   7.27461339179   1.4   1
C   2.1   8.48704895709   1.4   -1
C   0.7   8.48704895709   1.4   1
C   0.0   7.27461339179   1.4   -1
C   0.7   6.06217782649   1.4   1
C   2.1   6.06217782649   1.4   -1
C   7.0   7.27461339179   1.4   1
C   6.3   8.48704895709   1.4   -1
C   4.9   8.48704895709   1.4   1
C   4.2   7.27461339179   1.4   -1
C   4.9   6.06217782649   1.4   1
C   6.3   6.06217782649   1.4   -1
C   11.2   7.27461339179   1.4   1
C   10.5   8.48704895709   1.4   -1
C   9.1   8.48704895709   1.4   1
C   8.4   7.27461339179   1.4   -1
C   9.1   6.06217782649   1.4   1
C   10.5   6.06217782649   1.4   -1
C   15.4   7.27461339179   1.4   1
C   14.7   8.48704895709   1.4   -1
C   13.3   8.48704895709   1.4   1
C   12.6   7.27461339179   1.4   -1
C   13.3   6.06217782649   1.4   1
C   14.7   6.06217782649   1.4   -1
C   19.6   7.27461339179   1.4   1
C   18.9   8.48704895709   1.4   -1
C   17.5   8.48704895709   1.4   1
C   16.8   7.27461339179   1.4   -1
C   17.5   6.06217782649   1.4   1
C   18.9   6.06217782649   1.4   -1
C   -11.9   10.9119200877   1.4   1
C   -12.6   12.124355653   1.4   -1
C   -14.0   12.124355653   1.4   1
C   -14.7   10.9119200877   1.4   -1
C   -14.0   9.69948452239   1.4   1
C   -12.6   9.69948452239   1.4   -1
C   -7.7   10.9119200877   1.4   1
C   -8.4   12.124355653   1.4   -1
C   -9.8   12.124355653   1.4   1
C   -10.5   10.9119200877   1.4   -1
C   -9.8   9.69948452239   1.4   1
C   -8.4   9.69948452239   1.4   -1
C   -3.5   10.9119200877   1.4   1
C   -4.2   12.124355653   1.4   -1
C   -5.6   12.124355653   1.4   1
C   -6.3   10.9119200877   1.4   -1
C   -5.6   9.69948452239   1.4   1
C   -4.2   9.69948452239   1.4   -1
C   0.7   10.9119200877   1.4   1
C   2.22044604925e-16   12.124355653   1.4   -1
C   -1.4   12.124355653   1.4   1
C   -2.1   10.9119200877   1.4   -1
C   -1.4   9.69948452239   1.4   1
C   2.22044604925e-16   9.69948452239   1.4   -1
C   4.9   10.9119200877   1.4   1
C   4.2   12.124355653   1.4   -1
C   2.8   12.124355653   1.4   1
C   2.1   10.9119200877   1.4   -1
C   2.8   9.69948452239   1.4   1
C   4.2   9.69948452239   1.4   -1
C   9.1   10.9119200877   1.4   1
C   8.4   12.124355653   1.4   -1
C   7.0   12.124355653   1.4   1
C   6.3   10.9119200877   1.4   -1
C   7.0   9.69948452239   1.4   1
C   8.4   9.69948452239   1.4   -1
C   13.3   10.9119200877   1.4   1
C   12.6   12.124355653   1.4   -1
C   11.2   12.124355653   1.4   1
C   10.5   10.9119200877   1.4   -1
C   11.2   9.69948452239   1.4   1
C   12.6   9.69948452239   1.4   -1
C   17.5   10.9119200877   1.4   1
C   16.8   12.124355653   1.4   -1
C   15.4   12.124355653   1.4   1
C   14.7   10.9119200877   1.4   -1
C   15.4   9.69948452239   1.4   1
C   16.8   9.69948452239   1.4   -1
C   -9.8   14.5492267836   1.4   1
C   -10.5   15.7616623489   1.4   -1
C   -11.9   15.7616623489   1.4   1
C   -12.6   14.5492267836   1.4   -1
C   -11.9   13.3367912183   1.4   1
C   -10.5   13.3367912183   1.4   -1
C   -5.6   14.5492267836   1.4   1
C   -6.3   15.7616623489   1.4   -1
C   -7.7   15.7616623489   1.4   1
C   -8.4   14.5492267836   1.4   -1
C   -7.7   13.3367912183   1.4   1
C   -6.3   13.3367912183   1.4   -1
C   -1.4   14.5492267836   1.4   1
C   -2.1   15.7616623489   1.4   -1
C   -3.5   15.7616623489   1.4   1
C   -4.2   14.5492267836   1.4   -1
C   -3.5   13.3367912183   1.4   1
C   -2.1   13.3367912183   1.4   -1
C   2.8   14.5492267836   1.4   1
C   2.1   15.7616623489   1.4   -1
C   0.7   15.7616623489   1.4   1
C   0.0   14.5492267836   1.4   -1
C   0.7   13.3367912183   1.4   1
C   2.1   13.3367912183   1.4   -1
C   7.0   14.5492267836   1.4   1
C   6.3   15.7616623489   1.4   -1
C   4.9   15.7616623489   1.4   1
C   4.2   14.5492267836   1.4   -1
C   4.9   13.3367912183   1.4   1
C   6.3   13.3367912183   1.4   -1
C   11.2   14.5492267836   1.4   1
C   10.5   15.7616623489   1.4   -1
C   9.1   15.7616623489   1.4   1
C   8.4   14.5492267836   1.4   -1
C   9.1   13.3367912183   1.4   1
C   10.5   13.3367912183   1.4   -1
C   15.4   14.5492267836   1.4   1
C   14.7   15.7616623489   1.4   -1
C   13.3   15.7616623489   1.4   1
C   12.6   14.5492267836   1.4   -1
C   13.3   13.3367912183   1.4   1
C   14.7   13.3367912183   1.4   -1
C   -7.7   18.1865334795   1.4   1
C   -8.4   19.3989690448   1.4   -1
C   -9.8   19.3989690448   1.4   1
C   -10.5   18.1865334795   1.4   -1
C   -9.8   16.9740979142   1.4   1
C   -8.4   16.9740979142   1.4   -1
C   -3.5   18.1865334795   1.4   1
C   -4.2   19.3989690448   1.4   -1
C   -5.6   19.3989690448   1.4   1
C   -6.3   18.1865334795   1.4   -1
C   -5.6   16.9740979142   1.4   1
C   -4.2   16.9740979142   1.4   -1
C   0.7   18.1865334795   1.4   1
C   2.22044604925e-16   19.3989690448   1.4   -1
C   -1.4   19.3989690448   1.4   1
C   -2.1   18.1865334795   1.4   -1
C   -1.4   16.9740979142   1.4   1
C   2.22044604925e-16   16.9740979142   1.4   -1
C   4.9   18.1865334795   1.4   1
C   4.2   19.3989690448   1.4   -1
C   2.8   19.3989690448   1.4   1
C   2.1   18.1865334795   1.4   -1
C   2.8   16.9740979142   1.4   1
C   4.2   16.9740979142   1.4   -1
C   9.1   18.1865334795   1.4   1
C   8.4   19.3989690448   1.4   -1
C   7.0   19.3989690448   1.4   1
C   6.3   18.1865334795   1.4   -1
C   7.0   16.9740979142   1.4   1
C   8.4   16.9740979142   1.4   -1
C   13.3   18.1865334795   1.4   1
C   12.6   19.3989690448   1.4   -1
C   11.2   19.3989690448   1.4   1
C   10.5   18.1865334795   1.4   -1
C   11.2   16.9740979142   1.4   1
C   12.6   16.9740979142   1.4   -1
