16
[4.2,-2.4248711306,0.0][4.2,2.4248711306,0.0]
C   -2.8   0.0   0.0   1
C   -1.4   0.0   0.0   -1
C   -0.7   1.2124355653   0.0   1
C   0.7   1.2124355653   0.0   -1
C   -0.7   -1.2124355653   0.0   1
C   0.7   -1.2124355653   0.0   -1
C   1.4   0.0   0.0   1
C   2.8   0.0   0.0   -1
C   -1.4   0.0   1.4   1
C   2.22044604925e-16   0.0   1.4   -1
C   0.7   1.2124355653   1.4   1
C   2.1   1.2124355653   1.4   -1
C   0.7   -1.2124355653   1.4   1
C   2.1   -1.2124355653   1.4   -1
C   2.8   0.0   1.4   1
C   4.2   0.0   1.4   -1
