64
[8.4,-4.84974226119,0.0][8.4,4.84974226119,0.0]
C   -7.0   -2.77555756156e-17   0.0   1
C   -5.6   -2.77555756156e-17   0.0   -1
C   -4.9   1.2124355653   0.0   1
C   -3.5   1.2124355653   0.0   -1
C   -2.8   2.4248711306   0.0   1
C   -1.4   2.4248711306   0.0   -1
C   -0.7   3.63730669589   0.0   1
C   0.7   3.63730669589   0.0   -1
C   -4.9   -1.2124355653   0.0   1
C   -3.5   -1.2124355653   0.0   -1
C   -2.8   -2.77555756156e-17   0.0   1
C   -1.4   -2.77555756156e-17   0.0   -1
C   -0.7   1.2124355653   0.0   1
C   0.7   1.2124355653   0.0   -1
C   1.4   2.4248711306   0.0   1
C   2.8   2.4248711306   0.0   -1
C   -2.8   -2.4248711306   0.0   1
C   -1.4   -2.4248711306   0.0   -1
C   -0.7   -1.2124355653   0.0   1
C   0.7   -1.2124355653   0.0   -1
C   1.4   -2.77555756156e-17   0.0   1
C   2.8   -2.77555756156e-17   0.0   -1
C   3.5   1.2124355653   0.0   1
C   4.9   1.2124355653   0.0   -1
C   -0.7   -3.63730669589   0.0   1
C   0.7   -3.63730669589   0.0   -1
C   1.4   -2.4248711306   0.0   1
C   2.8   -2.4248711306   0.0   -1
C   3.5   -1.2124355653   0.0   1
C   4.9   -1.2124355653   0.0   -1
C   5.6   -2.77555756156e-17   0.0   1
C   7.0   -2.77555756156e-17   0.0   -1
C   -5.6   -2.77555756156e-17   1.4   1
C   -4.2   -2.77555756156e-17   1.4   -1
C   -3.5   1.2124355653   1.4   1
C   -2.1   1.2124355653   1.4   -1
C   -1.4   2.4248711306   1.4   1
C   4.4408920985e-16   2.4248711306   1.4   -1
C   0.7   3.63730669589   1.4   1
C   2.1   3.63730669589   1.4   -1
C   -3.5   -1.2124355653   1.4   1
C   -2.1   -1.2124355653   1.4   -1
C   -1.4   -2.77555756156e-17   1.4   1
C   4.4408920985e-16   -2.77555756156e-17   1.4   -1
C   0.7   1.2124355653   1.4   1
C   2.1   1.2124355653   1.4   -1
C   2.8   2.4248711306   1.4   1
C   4.2   2.4248711306   1.4   -1
C   -1.4   -2.4248711306   1.4   1
C   4.4408920985e-16   -2.4248711306   1.4   -1
C   0.7   -1.2124355653   1.4   1
C   2.1   -1.2124355653   1.4   -1
C   2.8   -2.77555756156e-17   1.4   1
C   4.2   -2.77555756156e-17   1.4   -1
C   4.9   1.2124355653   1.4   1
C   6.3   1.2124355653   1.4   -1
C   0.7   -3.63730669589   1.4   1
C   2.1   -3.63730669589   1.4   -1
C   2.8   -2.4248711306   1.4   1
C   4.2   -2.4248711306   1.4   -1
C   4.9   -1.2124355653   1.4   1
C   6.3   -1.2124355653   1.4   -1
C   7.0   -2.77555756156e-17   1.4   1
C   8.4   -2.77555756156e-17   1.4   -1
